Afimoxifene
 OpenBabel08142401063D

 58 60  0  0  0  0  0  0  0  0999 V2000
   -5.0738   -0.6762   -1.3410 C   0  0  0  0  0  0  0  0  0  0  0  0
   -4.4692   -0.8231    0.0525 C   0  0  0  0  0  0  0  0  0  0  0  0
   -3.1614   -0.0597    0.1653 C   0  0  0  0  0  0  0  0  0  0  0  0
   -1.9515   -0.6854    0.1544 C   0  0  0  0  0  0  0  0  0  0  0  0
   -1.8325   -2.1445   -0.0516 C   0  0  0  0  0  0  0  0  0  0  0  0
   -1.9987   -2.6985   -1.3299 C   0  0  0  0  0  0  0  0  0  0  0  0
   -1.8710   -4.0775   -1.5199 C   0  0  0  0  0  0  0  0  0  0  0  0
   -1.5663   -4.9120   -0.4354 C   0  0  0  0  0  0  0  0  0  0  0  0
   -1.3861   -4.3590    0.8370 C   0  0  0  0  0  0  0  0  0  0  0  0
   -1.5133   -2.9800    1.0289 C   0  0  0  0  0  0  0  0  0  0  0  0
   -1.4374   -6.2877   -0.6121 O   0  0  0  0  0  0  0  0  0  0  0  0
   -0.6855    0.0506    0.4010 C   0  0  0  0  0  0  0  0  0  0  0  0
    0.3710   -0.0422   -0.5173 C   0  0  0  0  0  0  0  0  0  0  0  0
    1.5690    0.6410   -0.2896 C   0  0  0  0  0  0  0  0  0  0  0  0
    1.7334    1.4198    0.8727 C   0  0  0  0  0  0  0  0  0  0  0  0
    0.6816    1.4997    1.7924 C   0  0  0  0  0  0  0  0  0  0  0  0
   -0.5158    0.8167    1.5655 C   0  0  0  0  0  0  0  0  0  0  0  0
    2.9128    2.1299    1.1533 O   0  0  0  0  0  0  0  0  0  0  0  0
    4.1080    2.0972    0.3724 C   0  0  0  0  0  0  0  0  0  0  0  0
    4.8859    0.7997    0.6253 C   0  0  0  0  0  0  0  0  0  0  0  0
    6.0025    0.6612   -0.3351 N   0  0  0  0  0  0  0  0  0  0  0  0
    6.3928   -0.7528   -0.4586 C   0  0  0  0  0  0  0  0  0  0  0  0
    7.1696    1.4543    0.0903 C   0  0  0  0  0  0  0  0  0  0  0  0
   -3.2526    1.4218    0.2257 C   0  0  0  0  0  0  0  0  0  0  0  0
   -2.6584    2.2100   -0.7754 C   0  0  0  0  0  0  0  0  0  0  0  0
   -2.7424    3.6041   -0.7171 C   0  0  0  0  0  0  0  0  0  0  0  0
   -3.4240    4.2210    0.3352 C   0  0  0  0  0  0  0  0  0  0  0  0
   -4.0241    3.4445    1.3301 C   0  0  0  0  0  0  0  0  0  0  0  0
   -3.9423    2.0497    1.2762 C   0  0  0  0  0  0  0  0  0  0  0  0
   -4.3763   -1.0596   -2.1131 H   0  0  0  0  0  0  0  0  0  0  0  0
   -5.3002    0.3903   -1.5537 H   0  0  0  0  0  0  0  0  0  0  0  0
   -6.0192   -1.2557   -1.3986 H   0  0  0  0  0  0  0  0  0  0  0  0
   -4.3504   -1.9011    0.2886 H   0  0  0  0  0  0  0  0  0  0  0  0
   -5.1952   -0.4289    0.7944 H   0  0  0  0  0  0  0  0  0  0  0  0
   -2.2116   -2.0620   -2.1790 H   0  0  0  0  0  0  0  0  0  0  0  0
   -2.0031   -4.4955   -2.5097 H   0  0  0  0  0  0  0  0  0  0  0  0
   -1.1460   -4.9983    1.6770 H   0  0  0  0  0  0  0  0  0  0  0  0
   -1.3697   -2.5634    2.0184 H   0  0  0  0  0  0  0  0  0  0  0  0
   -1.5609   -6.7185   -1.5210 H   0  0  0  0  0  0  0  0  0  0  0  0
    0.2626   -0.6334   -1.4182 H   0  0  0  0  0  0  0  0  0  0  0  0
    2.3562    0.5535   -1.0245 H   0  0  0  0  0  0  0  0  0  0  0  0
    0.7956    2.0908    2.6922 H   0  0  0  0  0  0  0  0  0  0  0  0
   -1.3083    0.8803    2.3008 H   0  0  0  0  0  0  0  0  0  0  0  0
    4.7317    2.9621    0.6769 H   0  0  0  0  0  0  0  0  0  0  0  0
    3.8741    2.2230   -0.7063 H   0  0  0  0  0  0  0  0  0  0  0  0
    4.1755   -0.0488    0.5137 H   0  0  0  0  0  0  0  0  0  0  0  0
    5.2492    0.7771    1.6780 H   0  0  0  0  0  0  0  0  0  0  0  0
    6.6950   -1.1746    0.5263 H   0  0  0  0  0  0  0  0  0  0  0  0
    5.5472   -1.3482   -0.8654 H   0  0  0  0  0  0  0  0  0  0  0  0
    7.2362   -0.8604   -1.1747 H   0  0  0  0  0  0  0  0  0  0  0  0
    7.5367    1.1327    1.0906 H   0  0  0  0  0  0  0  0  0  0  0  0
    6.9163    2.5336    0.1253 H   0  0  0  0  0  0  0  0  0  0  0  0
    7.9953    1.3461   -0.6459 H   0  0  0  0  0  0  0  0  0  0  0  0
   -2.1331    1.7437   -1.6000 H   0  0  0  0  0  0  0  0  0  0  0  0
   -2.2803    4.2061   -1.4887 H   0  0  0  0  0  0  0  0  0  0  0  0
   -3.4878    5.3005    0.3793 H   0  0  0  0  0  0  0  0  0  0  0  0
   -4.5504    3.9238    2.1455 H   0  0  0  0  0  0  0  0  0  0  0  0
   -4.3995    1.4626    2.0626 H   0  0  0  0  0  0  0  0  0  0  0  0
  1  2  1  0  0  0  0
  1 30  1  0  0  0  0
  1 31  1  0  0  0  0
  1 32  1  0  0  0  0
  2  3  1  0  0  0  0
  2 33  1  0  0  0  0
  2 34  1  0  0  0  0
  3  4  2  3  0  0  0
  3 24  1  0  0  0  0
  4  5  1  0  0  0  0
  4 12  1  0  0  0  0
  5  6  2  0  0  0  0
  6  7  1  0  0  0  0
  6 35  1  0  0  0  0
  7  8  2  0  0  0  0
  7 36  1  0  0  0  0
  8  9  1  0  0  0  0
  8 11  1  0  0  0  0
  9 10  2  0  0  0  0
  9 37  1  0  0  0  0
 10  5  1  0  0  0  0
 10 38  1  0  0  0  0
 11 39  1  0  0  0  0
 12 13  2  0  0  0  0
 13 14  1  0  0  0  0
 13 40  1  0  0  0  0
 14 15  2  0  0  0  0
 14 41  1  0  0  0  0
 15 16  1  0  0  0  0
 15 18  1  0  0  0  0
 16 17  2  0  0  0  0
 16 42  1  0  0  0  0
 17 12  1  0  0  0  0
 17 43  1  0  0  0  0
 18 19  1  0  0  0  0
 19 20  1  0  0  0  0
 19 44  1  0  0  0  0
 19 45  1  0  0  0  0
 20 21  1  0  0  0  0
 20 46  1  0  0  0  0
 20 47  1  0  0  0  0
 21 22  1  0  0  0  0
 21 23  1  0  0  0  0
 22 48  1  0  0  0  0
 22 49  1  0  0  0  0
 22 50  1  0  0  0  0
 23 51  1  0  0  0  0
 23 52  1  0  0  0  0
 23 53  1  0  0  0  0
 24 25  2  0  0  0  0
 25 26  1  0  0  0  0
 25 54  1  0  0  0  0
 26 27  2  0  0  0  0
 26 55  1  0  0  0  0
 27 28  1  0  0  0  0
 27 56  1  0  0  0  0
 28 29  2  0  0  0  0
 28 57  1  0  0  0  0
 29 24  1  0  0  0  0
 29 58  1  0  0  0  0
M  END
>  <LIG_ID>
1

>  <_ID>
Afimoxifene

>  <_SMILES>
CCC(=C(C1=CC=C(C=C1)O)C2=CC=C(C=C2)OCCN(C)C)C3=CC=CC=C3

>  <_logP>
5.701700000000006

>  <_molecular_wt_calculated>
387.52299999999957

>  <_havy_atom_count>
29

>  <_hydrogen_acceptors>
3

>  <_hydrogen_donors>
1

>  <_rotatable_bonds>
12

>  <_amide_bonds>
0

>  <_ring_count>
3

$$$$
