Ciprofloxacin
 OpenBabel08142401063D

 42 45  0  0  0  0  0  0  0  0999 V2000
   -2.6398   -3.0779   -1.1135 C   0  0  0  0  0  0  0  0  0  0  0  0
   -1.1787   -2.7226   -1.2944 C   0  0  0  0  0  0  0  0  0  0  0  0
   -1.9152   -2.2709   -0.0365 C   0  0  0  0  0  0  0  0  0  0  0  0
   -2.2322   -0.8297   -0.0096 N   0  0  0  0  0  0  0  0  0  0  0  0
   -3.5508   -0.4665    0.0182 C   0  0  0  0  0  0  0  0  0  0  0  0
   -3.9461    0.8798    0.0213 C   0  0  0  0  0  0  0  0  0  0  0  0
   -2.9489    1.8715    0.0318 C   0  0  0  0  0  0  0  0  0  0  0  0
   -3.2675    3.0929    0.0139 O   0  0  0  0  0  0  0  0  0  0  0  0
   -1.5924    1.5027    0.0750 C   0  0  0  0  0  0  0  0  0  0  0  0
   -0.5797    2.4801    0.1252 C   0  0  0  0  0  0  0  0  0  0  0  0
    0.7625    2.1122    0.2052 C   0  0  0  0  0  0  0  0  0  0  0  0
    1.1210    0.7599    0.2507 C   0  0  0  0  0  0  0  0  0  0  0  0
    0.1220   -0.2217    0.1909 C   0  0  0  0  0  0  0  0  0  0  0  0
   -1.2439    0.1278    0.0798 C   0  0  0  0  0  0  0  0  0  0  0  0
    2.5030    0.3752    0.3538 N   0  0  0  0  0  0  0  0  0  0  0  0
    3.2522    0.7243    1.5667 C   0  0  0  0  0  0  0  0  0  0  0  0
    4.6745    0.1575    1.5086 C   0  0  0  0  0  0  0  0  0  0  0  0
    5.2590    0.3906    0.1834 N   0  0  0  0  0  0  0  0  0  0  0  0
    4.5402   -0.3242   -0.8903 C   0  0  0  0  0  0  0  0  0  0  0  0
    3.0550   -0.6121   -0.5806 C   0  0  0  0  0  0  0  0  0  0  0  0
    1.7142    3.0787    0.2152 F   0  0  0  0  0  0  0  0  0  0  0  0
   -5.3958    1.2196    0.0144 C   0  0  0  0  0  0  0  0  0  0  0  0
   -6.2627    0.3046   -0.0266 O   0  0  0  0  0  0  0  0  0  0  0  0
   -5.8202    2.5454    0.0542 O   0  0  0  0  0  0  0  0  0  0  0  0
   -2.8079   -4.1454   -0.8590 H   0  0  0  0  0  0  0  0  0  0  0  0
   -3.3055   -2.5192   -1.8053 H   0  0  0  0  0  0  0  0  0  0  0  0
   -0.9973   -1.9334   -2.0554 H   0  0  0  0  0  0  0  0  0  0  0  0
   -0.4809   -3.5713   -1.1347 H   0  0  0  0  0  0  0  0  0  0  0  0
   -1.6659   -2.7849    0.9160 H   0  0  0  0  0  0  0  0  0  0  0  0
   -4.3137   -1.2368    0.0276 H   0  0  0  0  0  0  0  0  0  0  0  0
   -0.8232    3.5355    0.1038 H   0  0  0  0  0  0  0  0  0  0  0  0
    0.4285   -1.2557    0.2563 H   0  0  0  0  0  0  0  0  0  0  0  0
    2.7285    0.3242    2.4616 H   0  0  0  0  0  0  0  0  0  0  0  0
    3.3158    1.8286    1.6617 H   0  0  0  0  0  0  0  0  0  0  0  0
    4.6633   -0.9327    1.7308 H   0  0  0  0  0  0  0  0  0  0  0  0
    5.3022    0.6508    2.2815 H   0  0  0  0  0  0  0  0  0  0  0  0
    5.2300    1.4190   -0.0159 H   0  0  0  0  0  0  0  0  0  0  0  0
    4.6030    0.2708   -1.8287 H   0  0  0  0  0  0  0  0  0  0  0  0
    5.0592   -1.2863   -1.0882 H   0  0  0  0  0  0  0  0  0  0  0  0
    2.4779   -0.6143   -1.5318 H   0  0  0  0  0  0  0  0  0  0  0  0
    2.9630   -1.6230   -0.1268 H   0  0  0  0  0  0  0  0  0  0  0  0
   -6.8064    2.7771    0.0499 H   0  0  0  0  0  0  0  0  0  0  0  0
  1  2  1  0  0  0  0
  1 25  1  0  0  0  0
  1 26  1  0  0  0  0
  2  3  1  0  0  0  0
  2 27  1  0  0  0  0
  2 28  1  0  0  0  0
  3  4  1  0  0  0  0
  3  1  1  0  0  0  0
  3 29  1  0  0  0  0
  4  5  1  0  0  0  0
  5  6  2  0  0  0  0
  5 30  1  0  0  0  0
  6  7  1  0  0  0  0
  6 22  1  0  0  0  0
  7  8  2  0  0  0  0
  7  9  1  0  0  0  0
  9 10  2  0  0  0  0
 10 11  1  0  0  0  0
 10 31  1  0  0  0  0
 11 12  2  0  0  0  0
 11 21  1  0  0  0  0
 12 13  1  0  0  0  0
 12 15  1  0  0  0  0
 13 14  2  0  0  0  0
 13 32  1  0  0  0  0
 14  4  1  0  0  0  0
 14  9  1  0  0  0  0
 15 16  1  0  0  0  0
 16 17  1  0  0  0  0
 16 33  1  0  0  0  0
 16 34  1  0  0  0  0
 17 18  1  0  0  0  0
 17 35  1  0  0  0  0
 17 36  1  0  0  0  0
 18 19  1  0  0  0  0
 18 37  1  0  0  0  0
 19 20  1  0  0  0  0
 19 38  1  0  0  0  0
 19 39  1  0  0  0  0
 20 15  1  0  0  0  0
 20 40  1  0  0  0  0
 20 41  1  0  0  0  0
 22 23  2  0  0  0  0
 22 24  1  0  0  0  0
 24 42  1  0  0  0  0
M  END
>  <LIG_ID>
2

>  <_ID>
Ciprofloxacin

>  <_SMILES>
C1CC1N2C=C(C(=O)C3=CC(=C(C=C32)N4CCNCC4)F)C(=O)O

>  <_logP>
1.5833

>  <_molecular_wt_calculated>
331.3469999999997

>  <_havy_atom_count>
24

>  <_hydrogen_acceptors>
6

>  <_hydrogen_donors>
2

>  <_rotatable_bonds>
3

>  <_amide_bonds>
0

>  <_ring_count>
4

$$$$
