Tamoxifen
 OpenBabel08142401063D

 57 59  0  0  0  0  0  0  0  0999 V2000
   -4.8385   -0.7251    0.4830 C   0  0  0  0  0  0  0  0  0  0  0  0
   -4.1726    0.3535   -0.3707 C   0  0  0  0  0  0  0  0  0  0  0  0
   -2.6596    0.3254   -0.2427 C   0  0  0  0  0  0  0  0  0  0  0  0
   -1.9052   -0.6680   -0.7942 C   0  0  0  0  0  0  0  0  0  0  0  0
   -2.4831   -1.6794   -1.7089 C   0  0  0  0  0  0  0  0  0  0  0  0
   -2.4787   -3.0360   -1.3461 C   0  0  0  0  0  0  0  0  0  0  0  0
   -2.9877   -4.0001   -2.2215 C   0  0  0  0  0  0  0  0  0  0  0  0
   -3.4872   -3.6185   -3.4699 C   0  0  0  0  0  0  0  0  0  0  0  0
   -3.4716   -2.2729   -3.8478 C   0  0  0  0  0  0  0  0  0  0  0  0
   -2.9637   -1.3060   -2.9749 C   0  0  0  0  0  0  0  0  0  0  0  0
   -0.4587   -0.8038   -0.4876 C   0  0  0  0  0  0  0  0  0  0  0  0
   -0.0149   -0.9002    0.8411 C   0  0  0  0  0  0  0  0  0  0  0  0
    1.3503   -0.9778    1.1263 C   0  0  0  0  0  0  0  0  0  0  0  0
    2.2948   -0.9640    0.0825 C   0  0  0  0  0  0  0  0  0  0  0  0
    1.8460   -0.9153   -1.2423 C   0  0  0  0  0  0  0  0  0  0  0  0
    0.4808   -0.8383   -1.5285 C   0  0  0  0  0  0  0  0  0  0  0  0
    3.6799   -0.9923    0.3104 O   0  0  0  0  0  0  0  0  0  0  0  0
    4.3166   -0.8325    1.5778 C   0  0  0  0  0  0  0  0  0  0  0  0
    4.1959    0.6106    2.1181 C   0  0  0  0  0  0  0  0  0  0  0  0
    4.8559    1.6526    1.2973 N   0  0  0  0  0  0  0  0  0  0  0  0
    4.1599    1.9357    0.0325 C   0  0  0  0  0  0  0  0  0  0  0  0
    6.2900    1.4091    1.0810 C   0  0  0  0  0  0  0  0  0  0  0  0
   -2.0201    1.4412    0.5080 C   0  0  0  0  0  0  0  0  0  0  0  0
   -2.4147    1.7367    1.8243 C   0  0  0  0  0  0  0  0  0  0  0  0
   -1.7966    2.7735    2.5303 C   0  0  0  0  0  0  0  0  0  0  0  0
   -0.7863    3.5276    1.9280 C   0  0  0  0  0  0  0  0  0  0  0  0
   -0.3969    3.2516    0.6152 C   0  0  0  0  0  0  0  0  0  0  0  0
   -1.0146    2.2189   -0.0958 C   0  0  0  0  0  0  0  0  0  0  0  0
   -4.5738   -1.7380    0.1182 H   0  0  0  0  0  0  0  0  0  0  0  0
   -5.9416   -0.6132    0.4245 H   0  0  0  0  0  0  0  0  0  0  0  0
   -4.5307   -0.6326    1.5449 H   0  0  0  0  0  0  0  0  0  0  0  0
   -4.4848    0.2368   -1.4276 H   0  0  0  0  0  0  0  0  0  0  0  0
   -4.5612    1.3434   -0.0461 H   0  0  0  0  0  0  0  0  0  0  0  0
   -2.0902   -3.3435   -0.3829 H   0  0  0  0  0  0  0  0  0  0  0  0
   -2.9921   -5.0433   -1.9334 H   0  0  0  0  0  0  0  0  0  0  0  0
   -3.8793   -4.3660   -4.1473 H   0  0  0  0  0  0  0  0  0  0  0  0
   -3.8470   -1.9799   -4.8197 H   0  0  0  0  0  0  0  0  0  0  0  0
   -2.9373   -0.2690   -3.2868 H   0  0  0  0  0  0  0  0  0  0  0  0
   -0.7273   -0.9066    1.6569 H   0  0  0  0  0  0  0  0  0  0  0  0
    1.6558   -1.0434    2.1605 H   0  0  0  0  0  0  0  0  0  0  0  0
    2.5620   -0.9151   -2.0543 H   0  0  0  0  0  0  0  0  0  0  0  0
    0.1580   -0.7763   -2.5605 H   0  0  0  0  0  0  0  0  0  0  0  0
    3.8830   -1.5456    2.3103 H   0  0  0  0  0  0  0  0  0  0  0  0
    5.3842   -1.1142    1.4788 H   0  0  0  0  0  0  0  0  0  0  0  0
    4.6413    0.6310    3.1363 H   0  0  0  0  0  0  0  0  0  0  0  0
    3.1264    0.8729    2.2609 H   0  0  0  0  0  0  0  0  0  0  0  0
    4.5057    2.9124   -0.3672 H   0  0  0  0  0  0  0  0  0  0  0  0
    3.0630    2.0151    0.1938 H   0  0  0  0  0  0  0  0  0  0  0  0
    4.3657    1.1574   -0.7325 H   0  0  0  0  0  0  0  0  0  0  0  0
    6.7716    2.3365    0.7043 H   0  0  0  0  0  0  0  0  0  0  0  0
    6.4581    0.5996    0.3379 H   0  0  0  0  0  0  0  0  0  0  0  0
    6.7875    1.1397    2.0375 H   0  0  0  0  0  0  0  0  0  0  0  0
   -3.1858    1.1568    2.3124 H   0  0  0  0  0  0  0  0  0  0  0  0
   -2.0987    2.9899    3.5468 H   0  0  0  0  0  0  0  0  0  0  0  0
   -0.3073    4.3275    2.4775 H   0  0  0  0  0  0  0  0  0  0  0  0
    0.3829    3.8387    0.1476 H   0  0  0  0  0  0  0  0  0  0  0  0
   -0.7075    2.0228   -1.1158 H   0  0  0  0  0  0  0  0  0  0  0  0
  1  2  1  0  0  0  0
  1 29  1  0  0  0  0
  1 30  1  0  0  0  0
  1 31  1  0  0  0  0
  2  3  1  0  0  0  0
  2 32  1  0  0  0  0
  2 33  1  0  0  0  0
  3  4  2  3  0  0  0
  3 23  1  0  0  0  0
  4  5  1  0  0  0  0
  4 11  1  0  0  0  0
  5  6  2  0  0  0  0
  6  7  1  0  0  0  0
  6 34  1  0  0  0  0
  7  8  2  0  0  0  0
  7 35  1  0  0  0  0
  8  9  1  0  0  0  0
  8 36  1  0  0  0  0
  9 10  2  0  0  0  0
  9 37  1  0  0  0  0
 10  5  1  0  0  0  0
 10 38  1  0  0  0  0
 11 12  2  0  0  0  0
 12 13  1  0  0  0  0
 12 39  1  0  0  0  0
 13 14  2  0  0  0  0
 13 40  1  0  0  0  0
 14 15  1  0  0  0  0
 14 17  1  0  0  0  0
 15 16  2  0  0  0  0
 15 41  1  0  0  0  0
 16 11  1  0  0  0  0
 16 42  1  0  0  0  0
 17 18  1  0  0  0  0
 18 19  1  0  0  0  0
 18 43  1  0  0  0  0
 18 44  1  0  0  0  0
 19 20  1  0  0  0  0
 19 45  1  0  0  0  0
 19 46  1  0  0  0  0
 20 21  1  0  0  0  0
 20 22  1  0  0  0  0
 21 47  1  0  0  0  0
 21 48  1  0  0  0  0
 21 49  1  0  0  0  0
 22 50  1  0  0  0  0
 22 51  1  0  0  0  0
 22 52  1  0  0  0  0
 23 24  2  0  0  0  0
 24 25  1  0  0  0  0
 24 53  1  0  0  0  0
 25 26  2  0  0  0  0
 25 54  1  0  0  0  0
 26 27  1  0  0  0  0
 26 55  1  0  0  0  0
 27 28  2  0  0  0  0
 27 56  1  0  0  0  0
 28 23  1  0  0  0  0
 28 57  1  0  0  0  0
M  END
>  <LIG_ID>
0

>  <_ID>
Tamoxifen

>  <_SMILES>
CCC(=C(C1=CC=CC=C1)C2=CC=C(C=C2)OCCN(C)C)C3=CC=CC=C3

>  <_logP>
5.996100000000006

>  <_molecular_wt_calculated>
371.5239999999996

>  <_havy_atom_count>
28

>  <_hydrogen_acceptors>
2

>  <_hydrogen_donors>
0

>  <_rotatable_bonds>
11

>  <_amide_bonds>
0

>  <_ring_count>
3

$$$$
