MODEL 1
REMARK VINA RESULT:    -6.142      0.000      0.000
REMARK INTER + INTRA:         -10.699
REMARK INTER:                  -9.015
REMARK INTRA:                  -1.685
REMARK UNBOUND:                -1.685
REMARK  Name = Tamoxifen
REMARK  11 active torsions:
REMARK  status: ('A' for Active; 'I' for Inactive)
REMARK    1  A    between atoms: C_1  and  C_2
REMARK    2  A    between atoms: C_2  and  C_3
REMARK    3  A    between atoms: C_3  and  C_23
REMARK    4  A    between atoms: C_4  and  C_5
REMARK    5  A    between atoms: C_4  and  C_11
REMARK    6  A    between atoms: C_14  and  O_17
REMARK    7  A    between atoms: O_17  and  C_18
REMARK    8  A    between atoms: C_18  and  C_19
REMARK    9  A    between atoms: C_19  and  N_20
REMARK   10  A    between atoms: N_20  and  C_21
REMARK   11  A    between atoms: N_20  and  C_22
REMARK                            x       y       z     vdW  Elec       q    Type
REMARK                         _______ _______ _______ _____ _____    ______ ____
ROOT
ATOM      1  C   UNL     1       6.908  39.188  35.425  0.00  0.00    +0.000 C 
ATOM      2  C   UNL     1       8.039  39.019  36.168  0.00  0.00    +0.000 C 
ENDROOT
BRANCH   2   3
ATOM      3  C   UNL     1       9.057  40.086  36.302  0.00  0.00    +0.000 A 
ATOM      4  C   UNL     1       8.867  41.124  37.229  0.00  0.00    +0.000 A 
ATOM      5  C   UNL     1       9.805  42.155  37.334  0.00  0.00    +0.000 A 
ATOM      6  C   UNL     1      10.929  42.167  36.503  0.00  0.00    +0.000 A 
ATOM      7  C   UNL     1      11.112  41.151  35.560  0.00  0.00    +0.000 A 
ATOM      8  C   UNL     1      10.176  40.118  35.453  0.00  0.00    +0.000 A 
ENDBRANCH   2   3
BRANCH   2   9
ATOM      9  C   UNL     1       8.324  37.742  36.869  0.00  0.00    +0.000 A 
ATOM     10  C   UNL     1       8.229  36.517  36.190  0.00  0.00    +0.000 A 
ATOM     11  C   UNL     1       8.450  35.315  36.867  0.00  0.00    +0.000 A 
ATOM     12  C   UNL     1       8.773  35.321  38.236  0.00  0.00    +0.000 A 
ATOM     13  C   UNL     1       8.913  36.546  38.898  0.00  0.00    +0.000 A 
ATOM     14  C   UNL     1       8.693  37.749  38.222  0.00  0.00    +0.000 A 
BRANCH  12  15
ATOM     15  O   UNL     1       8.959  34.145  38.980  0.00  0.00    +0.000 OA
BRANCH  15  16
ATOM     16  C   UNL     1       8.943  34.051  40.404  0.00  0.00    +0.000 C 
BRANCH  16  17
ATOM     17  C   UNL     1       9.620  32.758  40.915  0.00  0.00    +0.000 C 
BRANCH  17  18
ATOM     18  N   UNL     1       9.287  32.375  42.307  0.00  0.00    +0.000 NA
ATOM     19  C   UNL     1      10.416  32.507  43.241  0.00  0.00    +0.000 C 
ATOM     20  C   UNL     1       8.649  31.054  42.415  0.00  0.00    +0.000 C 
ENDBRANCH  17  18
ENDBRANCH  16  17
ENDBRANCH  15  16
ENDBRANCH  12  15
ENDBRANCH   2   9
BRANCH   1  21
ATOM     21  C   UNL     1       5.811  38.181  35.469  0.00  0.00    +0.000 A 
ATOM     22  C   UNL     1       5.605  37.299  34.395  0.00  0.00    +0.000 A 
ATOM     23  C   UNL     1       4.586  36.344  34.451  0.00  0.00    +0.000 A 
ATOM     24  C   UNL     1       3.758  36.266  35.575  0.00  0.00    +0.000 A 
ATOM     25  C   UNL     1       3.944  37.148  36.642  0.00  0.00    +0.000 A 
ATOM     26  C   UNL     1       4.960  38.107  36.588  0.00  0.00    +0.000 A 
ENDBRANCH   1  21
BRANCH   1  28
ATOM     27  C   UNL     1       5.749  41.414  35.157  0.00  0.00    +0.000 C 
ATOM     28  C   UNL     1       6.703  40.398  34.531  0.00  0.00    +0.000 C 
ENDBRANCH   1  28
TORSDOF 8
ENDMDL
MODEL 2
REMARK VINA RESULT:    -6.092      2.364      5.400
REMARK INTER + INTRA:         -10.625
REMARK INTER:                  -9.125
REMARK INTRA:                  -1.500
REMARK UNBOUND:                -1.685
REMARK  Name = Tamoxifen
REMARK  11 active torsions:
REMARK  status: ('A' for Active; 'I' for Inactive)
REMARK    1  A    between atoms: C_1  and  C_2
REMARK    2  A    between atoms: C_2  and  C_3
REMARK    3  A    between atoms: C_3  and  C_23
REMARK    4  A    between atoms: C_4  and  C_5
REMARK    5  A    between atoms: C_4  and  C_11
REMARK    6  A    between atoms: C_14  and  O_17
REMARK    7  A    between atoms: O_17  and  C_18
REMARK    8  A    between atoms: C_18  and  C_19
REMARK    9  A    between atoms: C_19  and  N_20
REMARK   10  A    between atoms: N_20  and  C_21
REMARK   11  A    between atoms: N_20  and  C_22
REMARK                            x       y       z     vdW  Elec       q    Type
REMARK                         _______ _______ _______ _____ _____    ______ ____
ROOT
ATOM      1  C   UNL     1       9.548  43.028  36.296  0.00  0.00    +0.000 C 
ATOM      2  C   UNL     1       8.549  42.374  36.955  0.00  0.00    +0.000 C 
ENDROOT
BRANCH   2   3
ATOM      3  C   UNL     1       7.382  43.088  37.521  0.00  0.00    +0.000 A 
ATOM      4  C   UNL     1       7.439  43.598  38.829  0.00  0.00    +0.000 A 
ATOM      5  C   UNL     1       6.327  44.239  39.383  0.00  0.00    +0.000 A 
ATOM      6  C   UNL     1       5.147  44.360  38.643  0.00  0.00    +0.000 A 
ATOM      7  C   UNL     1       5.075  43.834  37.350  0.00  0.00    +0.000 A 
ATOM      8  C   UNL     1       6.185  43.192  36.792  0.00  0.00    +0.000 A 
ENDBRANCH   2   3
BRANCH   2   9
ATOM      9  C   UNL     1       8.589  40.904  37.162  0.00  0.00    +0.000 A 
ATOM     10  C   UNL     1       9.438  40.341  38.128  0.00  0.00    +0.000 A 
ATOM     11  C   UNL     1       9.508  38.955  38.285  0.00  0.00    +0.000 A 
ATOM     12  C   UNL     1       8.725  38.108  37.478  0.00  0.00    +0.000 A 
ATOM     13  C   UNL     1       7.845  38.676  36.548  0.00  0.00    +0.000 A 
ATOM     14  C   UNL     1       7.774  40.062  36.391  0.00  0.00    +0.000 A 
BRANCH  12  15
ATOM     15  O   UNL     1       8.787  36.708  37.557  0.00  0.00    +0.000 OA
BRANCH  15  16
ATOM     16  C   UNL     1       8.298  35.915  38.639  0.00  0.00    +0.000 C 
BRANCH  16  17
ATOM     17  C   UNL     1       9.440  35.363  39.524  0.00  0.00    +0.000 C 
BRANCH  17  18
ATOM     18  N   UNL     1       9.087  35.136  40.945  0.00  0.00    +0.000 NA
ATOM     19  C   UNL     1       9.641  33.891  41.498  0.00  0.00    +0.000 C 
ATOM     20  C   UNL     1       7.648  35.256  41.220  0.00  0.00    +0.000 C 
ENDBRANCH  17  18
ENDBRANCH  16  17
ENDBRANCH  15  16
ENDBRANCH  12  15
ENDBRANCH   2   9
BRANCH   1  21
ATOM     21  C   UNL     1      10.602  42.270  35.566  0.00  0.00    +0.000 A 
ATOM     22  C   UNL     1      10.255  41.258  34.654  0.00  0.00    +0.000 A 
ATOM     23  C   UNL     1      11.248  40.564  33.957  0.00  0.00    +0.000 A 
ATOM     24  C   UNL     1      12.596  40.867  34.169  0.00  0.00    +0.000 A 
ATOM     25  C   UNL     1      12.953  41.860  35.085  0.00  0.00    +0.000 A 
ATOM     26  C   UNL     1      11.963  42.554  35.786  0.00  0.00    +0.000 A 
ENDBRANCH   1  21
BRANCH   1  28
ATOM     27  C   UNL     1      10.415  45.098  37.452  0.00  0.00    +0.000 C 
ATOM     28  C   UNL     1       9.634  44.544  36.262  0.00  0.00    +0.000 C 
ENDBRANCH   1  28
TORSDOF 8
ENDMDL
MODEL 3
REMARK VINA RESULT:    -5.830      1.372      4.955
REMARK INTER + INTRA:         -10.241
REMARK INTER:                  -8.086
REMARK INTRA:                  -2.155
REMARK UNBOUND:                -1.685
REMARK  Name = Tamoxifen
REMARK  11 active torsions:
REMARK  status: ('A' for Active; 'I' for Inactive)
REMARK    1  A    between atoms: C_1  and  C_2
REMARK    2  A    between atoms: C_2  and  C_3
REMARK    3  A    between atoms: C_3  and  C_23
REMARK    4  A    between atoms: C_4  and  C_5
REMARK    5  A    between atoms: C_4  and  C_11
REMARK    6  A    between atoms: C_14  and  O_17
REMARK    7  A    between atoms: O_17  and  C_18
REMARK    8  A    between atoms: C_18  and  C_19
REMARK    9  A    between atoms: C_19  and  N_20
REMARK   10  A    between atoms: N_20  and  C_21
REMARK   11  A    between atoms: N_20  and  C_22
REMARK                            x       y       z     vdW  Elec       q    Type
REMARK                         _______ _______ _______ _____ _____    ______ ____
ROOT
ATOM      1  C   UNL     1       5.884  38.726  35.200  0.00  0.00    +0.000 C 
ATOM      2  C   UNL     1       5.596  37.471  35.650  0.00  0.00    +0.000 C 
ENDROOT
BRANCH   2   3
ATOM      3  C   UNL     1       4.311  36.803  35.344  0.00  0.00    +0.000 A 
ATOM      4  C   UNL     1       3.228  36.928  36.231  0.00  0.00    +0.000 A 
ATOM      5  C   UNL     1       2.024  36.268  35.969  0.00  0.00    +0.000 A 
ATOM      6  C   UNL     1       1.898  35.466  34.831  0.00  0.00    +0.000 A 
ATOM      7  C   UNL     1       2.979  35.317  33.957  0.00  0.00    +0.000 A 
ATOM      8  C   UNL     1       4.185  35.976  34.216  0.00  0.00    +0.000 A 
ENDBRANCH   2   3
BRANCH   2   9
ATOM      9  C   UNL     1       6.553  36.711  36.492  0.00  0.00    +0.000 A 
ATOM     10  C   UNL     1       6.373  36.631  37.883  0.00  0.00    +0.000 A 
ATOM     11  C   UNL     1       7.303  35.956  38.678  0.00  0.00    +0.000 A 
ATOM     12  C   UNL     1       8.428  35.347  38.092  0.00  0.00    +0.000 A 
ATOM     13  C   UNL     1       8.578  35.390  36.701  0.00  0.00    +0.000 A 
ATOM     14  C   UNL     1       7.649  36.063  35.905  0.00  0.00    +0.000 A 
BRANCH  12  15
ATOM     15  O   UNL     1       9.419  34.696  38.843  0.00  0.00    +0.000 OA
BRANCH  15  16
ATOM     16  C   UNL     1      10.076  35.232  39.992  0.00  0.00    +0.000 C 
BRANCH  16  17
ATOM     17  C   UNL     1       9.336  34.885  41.305  0.00  0.00    +0.000 C 
BRANCH  17  18
ATOM     18  N   UNL     1       9.093  33.442  41.534  0.00  0.00    +0.000 NA
ATOM     19  C   UNL     1       8.316  33.161  42.751  0.00  0.00    +0.000 C 
ATOM     20  C   UNL     1      10.313  32.624  41.471  0.00  0.00    +0.000 C 
ENDBRANCH  17  18
ENDBRANCH  16  17
ENDBRANCH  15  16
ENDBRANCH  12  15
ENDBRANCH   2   9
BRANCH   1  21
ATOM     21  C   UNL     1       7.253  39.294  35.348  0.00  0.00    +0.000 A 
ATOM     22  C   UNL     1       8.177  39.219  34.292  0.00  0.00    +0.000 A 
ATOM     23  C   UNL     1       9.454  39.770  34.431  0.00  0.00    +0.000 A 
ATOM     24  C   UNL     1       9.824  40.394  35.626  0.00  0.00    +0.000 A 
ATOM     25  C   UNL     1       8.918  40.460  36.688  0.00  0.00    +0.000 A 
ATOM     26  C   UNL     1       7.641  39.906  36.554  0.00  0.00    +0.000 A 
ENDBRANCH   1  21
BRANCH   1  28
ATOM     27  C   UNL     1       4.140  40.524  35.516  0.00  0.00    +0.000 C 
ATOM     28  C   UNL     1       4.841  39.599  34.523  0.00  0.00    +0.000 C 
ENDBRANCH   1  28
TORSDOF 8
ENDMDL
MODEL 4
REMARK VINA RESULT:    -5.215      2.437      5.249
REMARK INTER + INTRA:          -9.339
REMARK INTER:                  -7.092
REMARK INTRA:                  -2.247
REMARK UNBOUND:                -1.685
REMARK  Name = Tamoxifen
REMARK  11 active torsions:
REMARK  status: ('A' for Active; 'I' for Inactive)
REMARK    1  A    between atoms: C_1  and  C_2
REMARK    2  A    between atoms: C_2  and  C_3
REMARK    3  A    between atoms: C_3  and  C_23
REMARK    4  A    between atoms: C_4  and  C_5
REMARK    5  A    between atoms: C_4  and  C_11
REMARK    6  A    between atoms: C_14  and  O_17
REMARK    7  A    between atoms: O_17  and  C_18
REMARK    8  A    between atoms: C_18  and  C_19
REMARK    9  A    between atoms: C_19  and  N_20
REMARK   10  A    between atoms: N_20  and  C_21
REMARK   11  A    between atoms: N_20  and  C_22
REMARK                            x       y       z     vdW  Elec       q    Type
REMARK                         _______ _______ _______ _____ _____    ______ ____
ROOT
ATOM      1  C   UNL     1       8.556  42.219  34.942  0.00  0.00    +0.000 C 
ATOM      2  C   UNL     1       7.706  41.390  35.614  0.00  0.00    +0.000 C 
ENDROOT
BRANCH   2   3
ATOM      3  C   UNL     1       6.234  41.525  35.514  0.00  0.00    +0.000 A 
ATOM      4  C   UNL     1       5.514  42.131  36.555  0.00  0.00    +0.000 A 
ATOM      5  C   UNL     1       4.121  42.227  36.485  0.00  0.00    +0.000 A 
ATOM      6  C   UNL     1       3.437  41.703  35.384  0.00  0.00    +0.000 A 
ATOM      7  C   UNL     1       4.146  41.076  34.355  0.00  0.00    +0.000 A 
ATOM      8  C   UNL     1       5.539  40.979  34.422  0.00  0.00    +0.000 A 
ENDBRANCH   2   3
BRANCH   2   9
ATOM      9  C   UNL     1       8.212  40.316  36.505  0.00  0.00    +0.000 A 
ATOM     10  C   UNL     1       8.087  38.966  36.140  0.00  0.00    +0.000 A 
ATOM     11  C   UNL     1       8.520  37.958  37.004  0.00  0.00    +0.000 A 
ATOM     12  C   UNL     1       9.088  38.285  38.249  0.00  0.00    +0.000 A 
ATOM     13  C   UNL     1       9.253  39.633  38.589  0.00  0.00    +0.000 A 
ATOM     14  C   UNL     1       8.822  40.642  37.725  0.00  0.00    +0.000 A 
BRANCH  12  15
ATOM     15  O   UNL     1       9.498  37.316  39.178  0.00  0.00    +0.000 OA
BRANCH  15  16
ATOM     16  C   UNL     1       9.447  35.902  38.980  0.00  0.00    +0.000 C 
BRANCH  16  17
ATOM     17  C   UNL     1       8.165  35.273  39.574  0.00  0.00    +0.000 C 
BRANCH  17  18
ATOM     18  N   UNL     1       8.247  34.895  41.004  0.00  0.00    +0.000 NA
ATOM     19  C   UNL     1       7.815  35.961  41.921  0.00  0.00    +0.000 C 
ATOM     20  C   UNL     1       9.554  34.346  41.392  0.00  0.00    +0.000 C 
ENDBRANCH  17  18
ENDBRANCH  16  17
ENDBRANCH  15  16
ENDBRANCH  12  15
ENDBRANCH   2   9
BRANCH   1  21
ATOM     21  C   UNL     1      10.018  41.938  34.900  0.00  0.00    +0.000 A 
ATOM     22  C   UNL     1      10.911  42.673  35.699  0.00  0.00    +0.000 A 
ATOM     23  C   UNL     1      12.280  42.391  35.669  0.00  0.00    +0.000 A 
ATOM     24  C   UNL     1      12.772  41.381  34.837  0.00  0.00    +0.000 A 
ATOM     25  C   UNL     1      11.894  40.656  34.027  0.00  0.00    +0.000 A 
ATOM     26  C   UNL     1      10.525  40.937  34.051  0.00  0.00    +0.000 A 
ENDBRANCH   1  21
BRANCH   1  28
ATOM     27  C   UNL     1       7.937  44.659  35.127  0.00  0.00    +0.000 C 
ATOM     28  C   UNL     1       8.064  43.450  34.202  0.00  0.00    +0.000 C 
ENDBRANCH   1  28
TORSDOF 8
ENDMDL
MODEL 5
REMARK VINA RESULT:    -4.888      2.049      2.775
REMARK INTER + INTRA:          -8.858
REMARK INTER:                  -7.018
REMARK INTRA:                  -1.840
REMARK UNBOUND:                -1.685
REMARK  Name = Tamoxifen
REMARK  11 active torsions:
REMARK  status: ('A' for Active; 'I' for Inactive)
REMARK    1  A    between atoms: C_1  and  C_2
REMARK    2  A    between atoms: C_2  and  C_3
REMARK    3  A    between atoms: C_3  and  C_23
REMARK    4  A    between atoms: C_4  and  C_5
REMARK    5  A    between atoms: C_4  and  C_11
REMARK    6  A    between atoms: C_14  and  O_17
REMARK    7  A    between atoms: O_17  and  C_18
REMARK    8  A    between atoms: C_18  and  C_19
REMARK    9  A    between atoms: C_19  and  N_20
REMARK   10  A    between atoms: N_20  and  C_21
REMARK   11  A    between atoms: N_20  and  C_22
REMARK                            x       y       z     vdW  Elec       q    Type
REMARK                         _______ _______ _______ _____ _____    ______ ____
ROOT
ATOM      1  C   UNL     1       7.230  41.030  35.031  0.00  0.00    +0.000 C 
ATOM      2  C   UNL     1       8.348  40.498  35.603  0.00  0.00    +0.000 C 
ENDROOT
BRANCH   2   3
ATOM      3  C   UNL     1       9.618  41.254  35.698  0.00  0.00    +0.000 A 
ATOM      4  C   UNL     1      10.690  40.931  34.850  0.00  0.00    +0.000 A 
ATOM      5  C   UNL     1      11.905  41.615  34.960  0.00  0.00    +0.000 A 
ATOM      6  C   UNL     1      12.063  42.612  35.928  0.00  0.00    +0.000 A 
ATOM      7  C   UNL     1      11.008  42.922  36.791  0.00  0.00    +0.000 A 
ATOM      8  C   UNL     1       9.791  42.240  36.684  0.00  0.00    +0.000 A 
ENDBRANCH   2   3
BRANCH   2   9
ATOM      9  C   UNL     1       8.360  39.116  36.145  0.00  0.00    +0.000 A 
ATOM     10  C   UNL     1       7.965  38.031  35.346  0.00  0.00    +0.000 A 
ATOM     11  C   UNL     1       7.930  36.739  35.876  0.00  0.00    +0.000 A 
ATOM     12  C   UNL     1       8.294  36.512  37.216  0.00  0.00    +0.000 A 
ATOM     13  C   UNL     1       8.732  37.589  37.995  0.00  0.00    +0.000 A 
ATOM     14  C   UNL     1       8.767  38.881  37.466  0.00  0.00    +0.000 A 
BRANCH  12  15
ATOM     15  O   UNL     1       8.234  35.244  37.817  0.00  0.00    +0.000 OA
BRANCH  15  16
ATOM     16  C   UNL     1       7.624  34.949  39.073  0.00  0.00    +0.000 C 
BRANCH  16  17
ATOM     17  C   UNL     1       8.610  35.104  40.255  0.00  0.00    +0.000 C 
BRANCH  17  18
ATOM     18  N   UNL     1       8.035  35.689  41.489  0.00  0.00    +0.000 NA
ATOM     19  C   UNL     1       6.579  35.515  41.600  0.00  0.00    +0.000 C 
ATOM     20  C   UNL     1       8.431  37.086  41.716  0.00  0.00    +0.000 C 
ENDBRANCH  17  18
ENDBRANCH  16  17
ENDBRANCH  15  16
ENDBRANCH  12  15
ENDBRANCH   2   9
BRANCH   1  21
ATOM     21  C   UNL     1       5.918  40.331  35.129  0.00  0.00    +0.000 A 
ATOM     22  C   UNL     1       5.207  40.309  36.341  0.00  0.00    +0.000 A 
ATOM     23  C   UNL     1       3.968  39.667  36.420  0.00  0.00    +0.000 A 
ATOM     24  C   UNL     1       3.430  39.035  35.294  0.00  0.00    +0.000 A 
ATOM     25  C   UNL     1       4.137  39.038  34.089  0.00  0.00    +0.000 A 
ATOM     26  C   UNL     1       5.378  39.675  34.006  0.00  0.00    +0.000 A 
ENDBRANCH   1  21
BRANCH   1  28
ATOM     27  C   UNL     1       6.456  43.433  35.005  0.00  0.00    +0.000 C 
ATOM     28  C   UNL     1       7.258  42.351  34.283  0.00  0.00    +0.000 C 
ENDBRANCH   1  28
TORSDOF 8
ENDMDL
