REMARK  Name = Afimoxifene
REMARK  12 active torsions:
REMARK  status: ('A' for Active; 'I' for Inactive)
REMARK    1  A    between atoms: C_1  and  C_2
REMARK    2  A    between atoms: C_2  and  C_3
REMARK    3  A    between atoms: C_3  and  C_24
REMARK    4  A    between atoms: C_4  and  C_5
REMARK    5  A    between atoms: C_4  and  C_12
REMARK    6  A    between atoms: C_8  and  O_11
REMARK    7  A    between atoms: C_15  and  O_18
REMARK    8  A    between atoms: O_18  and  C_19
REMARK    9  A    between atoms: C_19  and  C_20
REMARK   10  A    between atoms: C_20  and  N_21
REMARK   11  A    between atoms: N_21  and  C_22
REMARK   12  A    between atoms: N_21  and  C_23
REMARK                            x       y       z     vdW  Elec       q    Type
REMARK                         _______ _______ _______ _____ _____    ______ ____
ROOT
ATOM      1  C   UNL     1      -3.161  -0.060   0.165  0.00  0.00    +0.000 C 
ATOM      2  C   UNL     1      -1.952  -0.685   0.154  0.00  0.00    +0.000 C 
ENDROOT
BRANCH   2   3
ATOM      3  C   UNL     1      -1.833  -2.144  -0.052  0.00  0.00    +0.000 A 
ATOM      4  C   UNL     1      -1.999  -2.699  -1.330  0.00  0.00    +0.000 A 
ATOM      5  C   UNL     1      -1.871  -4.077  -1.520  0.00  0.00    +0.000 A 
ATOM      6  C   UNL     1      -1.566  -4.912  -0.435  0.00  0.00    +0.000 A 
ATOM      7  C   UNL     1      -1.386  -4.359   0.837  0.00  0.00    +0.000 A 
ATOM      8  C   UNL     1      -1.513  -2.980   1.029  0.00  0.00    +0.000 A 
BRANCH   6   9
ATOM      9  O   UNL     1      -1.437  -6.288  -0.612  0.00  0.00    +0.000 OA
ATOM     10  H   UNL     1      -1.561  -6.718  -1.521  0.00  0.00    +0.000 HD
ENDBRANCH   6   9
ENDBRANCH   2   3
BRANCH   2  11
ATOM     11  C   UNL     1      -0.685   0.051   0.401  0.00  0.00    +0.000 A 
ATOM     12  C   UNL     1       0.371  -0.042  -0.517  0.00  0.00    +0.000 A 
ATOM     13  C   UNL     1       1.569   0.641  -0.290  0.00  0.00    +0.000 A 
ATOM     14  C   UNL     1       1.733   1.420   0.873  0.00  0.00    +0.000 A 
ATOM     15  C   UNL     1       0.682   1.500   1.792  0.00  0.00    +0.000 A 
ATOM     16  C   UNL     1      -0.516   0.817   1.565  0.00  0.00    +0.000 A 
BRANCH  14  17
ATOM     17  O   UNL     1       2.913   2.130   1.153  0.00  0.00    +0.000 OA
BRANCH  17  18
ATOM     18  C   UNL     1       4.108   2.097   0.372  0.00  0.00    +0.000 C 
BRANCH  18  19
ATOM     19  C   UNL     1       4.886   0.800   0.625  0.00  0.00    +0.000 C 
BRANCH  19  20
ATOM     20  N   UNL     1       6.003   0.661  -0.335  0.00  0.00    +0.000 NA
ATOM     21  C   UNL     1       6.393  -0.753  -0.459  0.00  0.00    +0.000 C 
ATOM     22  C   UNL     1       7.170   1.454   0.090  0.00  0.00    +0.000 C 
ENDBRANCH  19  20
ENDBRANCH  18  19
ENDBRANCH  17  18
ENDBRANCH  14  17
ENDBRANCH   2  11
BRANCH   1  23
ATOM     23  C   UNL     1      -3.253   1.422   0.226  0.00  0.00    +0.000 A 
ATOM     24  C   UNL     1      -2.658   2.210  -0.775  0.00  0.00    +0.000 A 
ATOM     25  C   UNL     1      -2.742   3.604  -0.717  0.00  0.00    +0.000 A 
ATOM     26  C   UNL     1      -3.424   4.221   0.335  0.00  0.00    +0.000 A 
ATOM     27  C   UNL     1      -4.024   3.445   1.330  0.00  0.00    +0.000 A 
ATOM     28  C   UNL     1      -3.942   2.050   1.276  0.00  0.00    +0.000 A 
ENDBRANCH   1  23
BRANCH   1  30
ATOM     29  C   UNL     1      -5.074  -0.676  -1.341  0.00  0.00    +0.000 C 
ATOM     30  C   UNL     1      -4.469  -0.823   0.052  0.00  0.00    +0.000 C 
ENDBRANCH   1  30
TORSDOF 9
