REMARK  Name = Ciprofloxacin
REMARK  4 active torsions:
REMARK  status: ('A' for Active; 'I' for Inactive)
REMARK    1  A    between atoms: C_3  and  N_4
REMARK    2  A    between atoms: C_6  and  C_22
REMARK    3  A    between atoms: C_12  and  N_15
REMARK    4  A    between atoms: C_22  and  O_24
REMARK                            x       y       z     vdW  Elec       q    Type
REMARK                         _______ _______ _______ _____ _____    ______ ____
ROOT
ATOM      1  N   UNL     1      -2.232  -0.830  -0.010  0.00  0.00    +0.000 N 
ATOM      2  C   UNL     1      -3.551  -0.467   0.018  0.00  0.00    +0.000 A 
ATOM      3  C   UNL     1      -3.946   0.880   0.021  0.00  0.00    +0.000 A 
ATOM      4  C   UNL     1      -2.949   1.871   0.032  0.00  0.00    +0.000 A 
ATOM      5  O   UNL     1      -3.268   3.093   0.014  0.00  0.00    +0.000 OA
ATOM      6  C   UNL     1      -1.592   1.503   0.075  0.00  0.00    +0.000 A 
ATOM      7  C   UNL     1      -0.580   2.480   0.125  0.00  0.00    +0.000 A 
ATOM      8  C   UNL     1       0.762   2.112   0.205  0.00  0.00    +0.000 A 
ATOM      9  C   UNL     1       1.121   0.760   0.251  0.00  0.00    +0.000 A 
ATOM     10  C   UNL     1       0.122  -0.222   0.191  0.00  0.00    +0.000 A 
ATOM     11  C   UNL     1      -1.244   0.128   0.080  0.00  0.00    +0.000 A 
ATOM     12  F   UNL     1       1.714   3.079   0.215  0.00  0.00    +0.000 F 
ENDROOT
BRANCH   9  13
ATOM     13  N   UNL     1       2.503   0.375   0.354  0.00  0.00    +0.000 N 
ATOM     14  C   UNL     1       3.252   0.724   1.567  0.00  0.00    +0.000 C 
ATOM     15  C   UNL     1       4.675   0.158   1.509  0.00  0.00    +0.000 C 
ATOM     16  N   UNL     1       5.259   0.391   0.183  0.00  0.00    +0.000 NA
ATOM     17  C   UNL     1       4.540  -0.324  -0.890  0.00  0.00    +0.000 C 
ATOM     18  C   UNL     1       3.055  -0.612  -0.581  0.00  0.00    +0.000 C 
ATOM     19  H   UNL     1       5.230   1.419  -0.016  0.00  0.00    +0.000 HD
ENDBRANCH   9  13
BRANCH   1  22
ATOM     20  C   UNL     1      -2.640  -3.078  -1.113  0.00  0.00    +0.000 C 
ATOM     21  C   UNL     1      -1.179  -2.723  -1.294  0.00  0.00    +0.000 C 
ATOM     22  C   UNL     1      -1.915  -2.271  -0.036  0.00  0.00    +0.000 C 
ENDBRANCH   1  22
BRANCH   3  23
ATOM     23  C   UNL     1      -5.396   1.220   0.014  0.00  0.00    +0.000 C 
ATOM     24  O   UNL     1      -6.263   0.305  -0.027  0.00  0.00    +0.000 OA
BRANCH  23  25
ATOM     25  O   UNL     1      -5.820   2.545   0.054  0.00  0.00    +0.000 OA
ATOM     26  H   UNL     1      -6.806   2.777   0.050  0.00  0.00    +0.000 HD
ENDBRANCH  23  25
ENDBRANCH   3  23
TORSDOF 4
