REMARK  Name = Tamoxifen
REMARK  11 active torsions:
REMARK  status: ('A' for Active; 'I' for Inactive)
REMARK    1  A    between atoms: C_1  and  C_2
REMARK    2  A    between atoms: C_2  and  C_3
REMARK    3  A    between atoms: C_3  and  C_23
REMARK    4  A    between atoms: C_4  and  C_5
REMARK    5  A    between atoms: C_4  and  C_11
REMARK    6  A    between atoms: C_14  and  O_17
REMARK    7  A    between atoms: O_17  and  C_18
REMARK    8  A    between atoms: C_18  and  C_19
REMARK    9  A    between atoms: C_19  and  N_20
REMARK   10  A    between atoms: N_20  and  C_21
REMARK   11  A    between atoms: N_20  and  C_22
REMARK                            x       y       z     vdW  Elec       q    Type
REMARK                         _______ _______ _______ _____ _____    ______ ____
ROOT
ATOM      1  C   UNL     1      -2.660   0.325  -0.243  0.00  0.00    +0.000 C 
ATOM      2  C   UNL     1      -1.905  -0.668  -0.794  0.00  0.00    +0.000 C 
ENDROOT
BRANCH   2   3
ATOM      3  C   UNL     1      -2.483  -1.679  -1.709  0.00  0.00    +0.000 A 
ATOM      4  C   UNL     1      -2.479  -3.036  -1.346  0.00  0.00    +0.000 A 
ATOM      5  C   UNL     1      -2.988  -4.000  -2.221  0.00  0.00    +0.000 A 
ATOM      6  C   UNL     1      -3.487  -3.619  -3.470  0.00  0.00    +0.000 A 
ATOM      7  C   UNL     1      -3.472  -2.273  -3.848  0.00  0.00    +0.000 A 
ATOM      8  C   UNL     1      -2.964  -1.306  -2.975  0.00  0.00    +0.000 A 
ENDBRANCH   2   3
BRANCH   2   9
ATOM      9  C   UNL     1      -0.459  -0.804  -0.488  0.00  0.00    +0.000 A 
ATOM     10  C   UNL     1      -0.015  -0.900   0.841  0.00  0.00    +0.000 A 
ATOM     11  C   UNL     1       1.350  -0.978   1.126  0.00  0.00    +0.000 A 
ATOM     12  C   UNL     1       2.295  -0.964   0.083  0.00  0.00    +0.000 A 
ATOM     13  C   UNL     1       1.846  -0.915  -1.242  0.00  0.00    +0.000 A 
ATOM     14  C   UNL     1       0.481  -0.838  -1.528  0.00  0.00    +0.000 A 
BRANCH  12  15
ATOM     15  O   UNL     1       3.680  -0.992   0.310  0.00  0.00    +0.000 OA
BRANCH  15  16
ATOM     16  C   UNL     1       4.317  -0.833   1.578  0.00  0.00    +0.000 C 
BRANCH  16  17
ATOM     17  C   UNL     1       4.196   0.611   2.118  0.00  0.00    +0.000 C 
BRANCH  17  18
ATOM     18  N   UNL     1       4.856   1.653   1.297  0.00  0.00    +0.000 NA
ATOM     19  C   UNL     1       4.160   1.936   0.033  0.00  0.00    +0.000 C 
ATOM     20  C   UNL     1       6.290   1.409   1.081  0.00  0.00    +0.000 C 
ENDBRANCH  17  18
ENDBRANCH  16  17
ENDBRANCH  15  16
ENDBRANCH  12  15
ENDBRANCH   2   9
BRANCH   1  21
ATOM     21  C   UNL     1      -2.020   1.441   0.508  0.00  0.00    +0.000 A 
ATOM     22  C   UNL     1      -2.415   1.737   1.824  0.00  0.00    +0.000 A 
ATOM     23  C   UNL     1      -1.797   2.773   2.530  0.00  0.00    +0.000 A 
ATOM     24  C   UNL     1      -0.786   3.528   1.928  0.00  0.00    +0.000 A 
ATOM     25  C   UNL     1      -0.397   3.252   0.615  0.00  0.00    +0.000 A 
ATOM     26  C   UNL     1      -1.015   2.219  -0.096  0.00  0.00    +0.000 A 
ENDBRANCH   1  21
BRANCH   1  28
ATOM     27  C   UNL     1      -4.838  -0.725   0.483  0.00  0.00    +0.000 C 
ATOM     28  C   UNL     1      -4.173   0.353  -0.371  0.00  0.00    +0.000 C 
ENDBRANCH   1  28
TORSDOF 8
